@<TRIPOS>MOLECULE
POP
    9     8     1     0     0
SMALL
resp


@<TRIPOS>ATOM
      1 O1          -0.0000    -0.1420    -0.3130 os         1 POP      -0.525204
      2 P1           1.6870    -0.0010    -0.0010 p5         1 POP       1.139889
      3 P2          -1.6870     0.0000    -0.0000 p5         1 POP       1.139889
      4 O2           2.0070    -0.7360     1.3370 o          1 POP      -0.792117
      5 O3           2.3440    -0.7130    -1.2310 o          1 POP      -0.792117
      6 O4           2.0450     1.5170     0.0490 o          1 POP      -0.792117
      7 O5          -2.2650     0.7390    -1.2520 o          1 POP      -0.792117
      8 O6          -2.2200    -1.4670     0.0980 o          1 POP      -0.792117
      9 O7          -1.9100     0.8030     1.3160 o          1 POP      -0.792117
@<TRIPOS>BOND
     1     1     2 1   
     2     1     3 1   
     3     2     4 1   
     4     2     5 1   
     5     2     6 1   
     6     3     7 1   
     7     3     8 1   
     8     3     9 1   
@<TRIPOS>SUBSTRUCTURE
     1 POP         1 TEMP              0 ****  ****    0 ROOT
